# Example "data.mnc" file
 &MNC_01
 monitor_mnc=.FALSE.,
 mnc_use_outdir=.FALSE.,
 pickup_read_mnc=.FALSE.,
 pickup_write_mnc=.FALSE.,
 &
